Circuit: * \\Mac\Home\Documents\Enseignement\IUT\Canada\Cours\Project\Simulates\ACsmallSignalTreatment\ac1.asc

Direct Newton iteration for .op point succeeded.

Date: Sat May 26 18:44:36 2018
Total elapsed time: 0.911 seconds.

tnom = 27
temp = 27
method = modified trap
totiter = 83339
traniter = 83314
tranpoints = 40981
accept = 26013
rejected = 14968
matrix size = 22
fillins = 4
solver = Normal
Matrix Compiler1: 918 bytes object code size  0.4/0.2/[0.2]
Matrix Compiler2: off  [0.3]/0.4/0.3

