Circuit: * \\Mac\Home\Documents\Enseignement\IUT\Canada\Cours\Project\Simulates\ACsmallSignalTreatment\ac2.asc

Direct Newton iteration failed to find .op point.  (Use ".option noopiter" to skip.)
Starting Gmin stepping
Gmin = 10
Gmin = 1.07374
Gmin = 0.115292
Gmin = 0.0123794
Gmin = 0.00132923
Gmin = 0.000142725
Gmin = 1.5325e-005
Gmin = 1.6455e-006
Gmin = 1.76685e-007
Gmin = 1.89714e-008
Gmin = 2.03704e-009
Gmin = 2.18725e-010
Gmin = 2.34854e-011
Gmin = 2.52173e-012
Gmin = 2.70769e-013
Gmin = 0
Gmin stepping succeeded in finding the operating point.


Date: Wed May 30 14:49:28 2018
Total elapsed time: 0.825 seconds.

tnom = 27
temp = 27
method = modified trap
totiter = 21035
traniter = 20585
tranpoints = 10077
accept = 10046
rejected = 31
matrix size = 31
fillins = 20
solver = Normal
Thread vector: 19.7/12.7[2] 3.7/2.5[2] 1.8/1.4[2] 0.4/122.7[1]  2592/500
Matrix Compiler1: 2.24 KB object code size  0.8/0.5/[0.4]
Matrix Compiler2: 2.89 KB object code size  0.8/0.8/[0.5]

