Circuit: * \\Mac\Home\Documents\Enseignement\IUT\Canada\Cours\Project\Simulates\ACsmallSignalTreatment\ac3.asc

Direct Newton iteration failed to find .op point.  (Use ".option noopiter" to skip.)
Starting Gmin stepping
Gmin = 10
Gmin = 1.07374
Gmin = 0.115292
Gmin = 0.0123794
Gmin = 0.00132923
Gmin = 0.000142725
Gmin = 1.5325e-005
Gmin = 1.6455e-006
Gmin = 1.76685e-007
Gmin = 1.89714e-008
Gmin = 2.03704e-009
Gmin = 2.18725e-010
Gmin = 2.34854e-011
Gmin = 2.52173e-012
Gmin = 2.70769e-013
Gmin = 0
Gmin stepping succeeded in finding the operating point.


Date: Wed May 30 15:07:48 2018
Total elapsed time: 0.581 seconds.

tnom = 27
temp = 27
method = modified trap
totiter = 21802
traniter = 21431
tranpoints = 10444
accept = 10316
rejected = 128
matrix size = 19
fillins = 7
solver = Normal
Thread vector: 35.9/11.7[2] 2.4/3.2[1] 4.2/5.5[1] 1.5/1.7[1]  2592/500
Matrix Compiler1: 1.12 KB object code size  0.4/0.3/[0.2]
Matrix Compiler2:     147 opcodes  0.6/[0.5]/0.5

