Circuit: * \\Mac\Home\Documents\Enseignement\IUT\Canada\Cours\Project\Simulates\ACsmallSignalTreatment\ac4.asc

Limiting rise time of source v3 to 5e-009
Limiting fall time of source v3 to 5e-009
.OP point found by inspection.

Date: Sun Jun 03 23:18:05 2018
Total elapsed time: 0.126 seconds.

tnom = 27
temp = 27
method = modified trap
totiter = 724
traniter = 724
tranpoints = 363
accept = 304
rejected = 59
matrix size = 3
fillins = 0
solver = Normal
Matrix Compiler1: 50 bytes object code size  0.1/0.1/[0.1]
Matrix Compiler2: 175 bytes object code size  0.1/0.1/[0.1]

