Circuit: * \\Mac\Home\Documents\Enseignement\IUT\Canada\Cours\Projet\Simulates\Classic_noise_gen\Classic_noise_gen.asc

Direct Newton iteration failed to find .op point.  (Use ".option noopiter" to skip.)
Starting Gmin stepping
Gmin = 10
Gmin = 1.07374
Gmin = 0.115292
Gmin = 0.0123794
Gmin = 0.00132923
Gmin = 0.000142725
Gmin = 1.5325e-005
Gmin = 1.6455e-006
Gmin = 1.76685e-007
Gmin = 1.89714e-008
Gmin = 2.03704e-009
Gmin = 2.18725e-010
vernier = 0.5
Gmin = 4.07733e-011
vernier = 0.25
vernier = 0.125
vernier = 0.0625
vernier = 0.03125
Gmin = 3.92313e-011
vernier = 0.015625
vernier = 0.0078125
Gmin = 3.84742e-011
vernier = 0.00390625
vernier = 0.00195313
vernier = 0.00260417
Gmin = 3.83554e-011
vernier = 0.00130208
vernier = 0.00173611
Gmin = 3.82516e-011
vernier = 0.00231481
vernier = 0.00308642
Gmin = 3.80272e-011
vernier = 0.00411522
vernier = 0.00205761
Gmin = 3.78322e-011
vernier = 0.00274348
vernier = 0.00137174
vernier = 0.00068587
vernier = 0.000514403
Gmin = 0
Gmin stepping succeeded in finding the operating point.


Date: Wed May 02 19:41:14 2018
Total elapsed time: 5.812 seconds.

tnom = 27
temp = 27
method = modified trap
totiter = 411284
traniter = 407552
tranpoints = 203777
accept = 203777
rejected = 0
matrix size = 10
fillins = 0
solver = Normal
Matrix Compiler1: 498 bytes object code size  0.2/0.2/[0.2]
Matrix Compiler2: off  [0.2]/0.2/0.3

