Circuit: * \\Mac\Home\Documents\Enseignement\IUT\Canada\Cours\Project\Simulates\Classic_noise_gen\Noise_gen4.asc

WARNING: Node NOISE is floating.

WARNING: Less than two connections to node NC_01.  This node is used by Q2.
WARNING: Less than two connections to node NOISE.  This node is used by C1.
Direct Newton iteration for .op point succeeded.

Date: Fri May 04 15:36:31 2018
Total elapsed time: 1.981 seconds.

tnom = 27
temp = 27
method = modified trap
totiter = 200062
traniter = 200035
tranpoints = 100018
accept = 100018
rejected = 0
matrix size = 6
fillins = 0
solver = Normal
Matrix Compiler1: 280 bytes object code size  0.3/0.2/[0.2]
Matrix Compiler2: off  [0.2]/0.2/0.3

